<?xml version="1.0" encoding="UTF-8"?>
<!DOCTYPE network SYSTEM "http://www.matsim.org/files/dtd/network_v2.dtd">
<network>

<!-- ====================================================================== -->

	<nodes>
		<node id="1005898306" x="429391.67754602653" y="4921198.405865912" >
		</node>
		<node id="1005898309" x="429433.97232173034" y="4921240.428085876" >
		</node>
		<node id="1005898312" x="429488.613216036" y="4921292.992585001" >
		</node>
		<node id="1005974663" x="428946.66111994756" y="4921821.917823675" >
		</node>
		<node id="1005974682" x="428968.57227265526" y="4922005.954863193" >
		</node>
		<node id="1006015320" x="427517.9417222289" y="4922345.28533618" >
		</node>
		<node id="1006022241" x="427489.5640937082" y="4922354.455321393" >
		</node>
		<node id="1006024117" x="427651.19161394174" y="4922248.109462511" >
		</node>
		<node id="1006024745" x="427706.1668269759" y="4922227.713436329" >
		</node>
		<node id="100812955" x="426669.99398328643" y="4921424.885243429" >
		</node>
		<node id="100812957" x="426693.6715542675" y="4921442.615332599" >
		</node>
		<node id="1015079736" x="429569.072832386" y="4921659.140014414" >
		</node>
		<node id="1023976754" x="427049.4972374003" y="4923492.755653143" >
		</node>
		<node id="1023976759" x="427054.4348146987" y="4923478.280679726" >
		</node>
		<node id="10286202425" x="427873.95955052704" y="4921660.168378138" >
		</node>
		<node id="10286202427" x="427835.58833206963" y="4921682.756119299" >
		</node>
		<node id="10556729875" x="426991.83533998014" y="4922726.441188459" >
		</node>
		<node id="10556729876" x="427032.9623861502" y="4922675.089224526" >
		</node>
		<node id="10556729880" x="426982.85042796534" y="4922719.2210906595" >
		</node>
		<node id="10556729883" x="426901.9201228058" y="4922830.509542612" >
		</node>
		<node id="10556729892" x="427150.00084936415" y="4922526.305044626" >
		</node>
		<node id="10666308221" x="428249.28636799497" y="4922171.213599414" >
		</node>
		<node id="11020774020" x="428364.5716275391" y="4921744.06823926" >
		</node>
		<node id="11048225433" x="428757.67950830254" y="4924142.504432617" >
		</node>
		<node id="11163206546" x="429191.81011450116" y="4921355.924252005" >
		</node>
		<node id="11183941748" x="428486.7809012527" y="4923422.388326156" >
		</node>
		<node id="11183941750" x="427976.29515043244" y="4923490.218417995" >
		</node>
		<node id="11183941751" x="428496.33273535984" y="4923484.338502174" >
		</node>
		<node id="11183941752" x="428062.95000293927" y="4923854.103867821" >
		</node>
		<node id="11183941753" x="428051.60363912134" y="4923806.471430602" >
		</node>
		<node id="11183941754" x="428039.7228319319" y="4923756.567564416" >
		</node>
		<node id="11183941755" x="428028.53466481215" y="4923709.599961927" >
		</node>
		<node id="11183941756" x="428018.472816241" y="4923666.652510676" >
		</node>
		<node id="11183941757" x="428011.13018152554" y="4923636.505965244" >
		</node>
		<node id="11183941758" x="428003.02839805465" y="4923602.468544485" >
		</node>
		<node id="11183941759" x="427992.573827388" y="4923558.57009873" >
		</node>
		<node id="11359311745" x="429926.90249426797" y="4922378.128353377" >
		</node>
		<node id="11408614405" x="428543.84803493257" y="4924019.106214869" >
		</node>
		<node id="11408614409" x="428565.9177539691" y="4923979.393371991" >
		</node>
		<node id="1149376371" x="426684.8125467739" y="4921349.221049972" >
		</node>
		<node id="11514527603" x="426696.0971000093" y="4923084.656950045" >
		</node>
		<node id="117307416" x="426678.65911004244" y="4924206.752561044" >
		</node>
		<node id="117307829" x="426694.31139986246" y="4924197.255602611" >
		</node>
		<node id="117308552" x="426653.5115800262" y="4924202.42575504" >
		</node>
		<node id="117316190" x="427199.8446182057" y="4924078.743418402" >
		</node>
		<node id="117317011" x="427244.4035306332" y="4924071.001802294" >
		</node>
		<node id="117331182" x="427632.3832577541" y="4922384.404539487" >
		</node>
		<node id="117334345" x="427882.9275139999" y="4922100.44264448" >
		</node>
		<node id="117334964" x="427993.96959933493" y="4922000.409587125" >
		</node>
		<node id="117335431" x="427998.21948917536" y="4922016.992815707" >
		</node>
		<node id="11903528267" x="429558.2399584745" y="4921265.433018694" >
		</node>
		<node id="12001154208" x="429513.67503147904" y="4923169.118231228" >
		</node>
		<node id="12001154209" x="429541.7981266726" y="4923179.156155956" >
		</node>
		<node id="12001154210" x="429561.19195135735" y="4923181.745670174" >
		</node>
		<node id="12007812263" x="426414.51914970507" y="4923830.957804554" >
		</node>
		<node id="12007821277" x="428970.62299745507" y="4924309.188949838" >
		</node>
		<node id="12110547464" x="427285.57725855295" y="4922686.61497773" >
		</node>
		<node id="12110816390" x="429294.091354466" y="4924293.278476394" >
		</node>
		<node id="12143583055" x="428404.33169058047" y="4921764.426958328" >
		</node>
		<node id="12143583059" x="428483.4769121659" y="4921789.196676505" >
		</node>
		<node id="12143583061" x="428511.69302752387" y="4921793.241514001" >
		</node>
		<node id="12143583063" x="428480.2655890979" y="4921808.37279501" >
		</node>
		<node id="12143583064" x="428397.89786873234" y="4921759.754163363" >
		</node>
		<node id="12143583065" x="428456.1185140958" y="4921782.098663133" >
		</node>
		<node id="12143583066" x="428454.13327114296" y="4921789.730158915" >
		</node>
		<node id="12143583068" x="428452.5056225927" y="4921816.865166096" >
		</node>
		<node id="12143583070" x="428447.28294346447" y="4921788.427926852" >
		</node>
		<node id="12195167438" x="429409.71589009266" y="4921922.493576213" >
		</node>
		<node id="12195167439" x="429405.5416407697" y="4921883.201919398" >
		</node>
		<node id="12217812204" x="429039.3356223347" y="4922300.360485743" >
		</node>
		<node id="12329220944" x="426973.2614776176" y="4923848.546917827" >
		</node>
		<node id="12329220945" x="426987.65210026706" y="4923807.326124051" >
		</node>
		<node id="12329220947" x="427000.7667905733" y="4923811.200462806" >
		</node>
		<node id="12528199492" x="426261.82140624605" y="4923519.619982495" >
		</node>
		<node id="12528199494" x="426283.16738279397" y="4923483.084568297" >
		</node>
		<node id="125428195" x="427296.4219033045" y="4923384.500004102" >
		</node>
		<node id="125428204" x="427294.9659409862" y="4923314.717840065" >
		</node>
		<node id="125431052" x="428101.06783491594" y="4921942.88080875" >
		</node>
		<node id="12571526311" x="428842.5960994368" y="4922576.3010659395" >
		</node>
		<node id="12571526314" x="428789.1176926167" y="4922577.163675266" >
		</node>
		<node id="12571526319" x="428461.45421161706" y="4922583.278618742" >
		</node>
		<node id="12571526323" x="428284.6456740162" y="4922586.090879906" >
		</node>
		<node id="12572087507" x="426639.5848056287" y="4922503.998549664" >
		</node>
		<node id="12705758895" x="426789.9720527529" y="4922985.906707032" >
		</node>
		<node id="12716424090" x="428774.901027917" y="4923433.0811513495" >
		</node>
		<node id="12716424091" x="428787.1276551485" y="4923493.2471871935" >
		</node>
		<node id="12716424092" x="428816.57154464244" y="4923642.208270096" >
		</node>
		<node id="12716424093" x="428829.9677635466" y="4923710.448975191" >
		</node>
		<node id="12716424094" x="428832.1343666358" y="4923720.145686702" >
		</node>
		<node id="12716424095" x="428889.68897164956" y="4923959.149513482" >
		</node>
		<node id="12716478916" x="428975.95742413215" y="4924327.09403311" >
		</node>
		<node id="12716564373" x="428768.5910688572" y="4923985.29188007" >
		</node>
		<node id="12716564374" x="428685.6351232156" y="4923520.320584371" >
		</node>
		<node id="12728623893" x="428896.6021800895" y="4923169.94361279" >
		</node>
		<node id="12728623894" x="428752.0832668134" y="4923238.367357636" >
		</node>
		<node id="12728623895" x="428706.2478379897" y="4923301.635428094" >
		</node>
		<node id="129553790" x="429067.00297725986" y="4921135.26959994" >
		</node>
		<node id="129557398" x="429299.6200653874" y="4921717.483263025" >
		</node>
		<node id="129565271" x="429151.2917047576" y="4921378.49411258" >
		</node>
		<node id="129565278" x="429228.1020100318" y="4921554.402733419" >
		</node>
		<node id="129570850" x="429147.79845616006" y="4921791.731024084" >
		</node>
		<node id="129570851" x="429171.41524995" y="4921773.188639281" >
		</node>
		<node id="129574492" x="428792.42115901073" y="4922567.096086549" >
		</node>
		<node id="1304347862" x="427657.564820508" y="4922327.512844767" >
		</node>
		<node id="1307143000" x="426757.2729559041" y="4921805.89977509" >
		</node>
		<node id="1311840923" x="426163.6197949551" y="4923558.9157143915" >
		</node>
		<node id="1336468919" x="426411.3787124001" y="4922701.917301225" >
		</node>
		<node id="1336468920" x="426781.2900325108" y="4922932.047453311" >
		</node>
		<node id="1336468929" x="426543.4142175915" y="4922822.803735067" >
		</node>
		<node id="1337452508" x="426511.70506688" y="4923929.486045872" >
		</node>
		<node id="1337452525" x="426508.9691113428" y="4923978.8526174165" >
		</node>
		<node id="1337452527" x="426578.62804111134" y="4923589.735403564" >
		</node>
		<node id="1337452533" x="426575.60646746634" y="4923580.015687996" >
		</node>
		<node id="1337452535" x="426566.9086427334" y="4923641.88058607" >
		</node>
		<node id="1337452538" x="426513.491258348" y="4923903.792661953" >
		</node>
		<node id="1337452546" x="426512.6391631426" y="4923910.056728836" >
		</node>
		<node id="1337452548" x="426591.49303111073" y="4923584.813322695" >
		</node>
		<node id="1340385601" x="428134.7112827642" y="4921871.989170129" >
		</node>
		<node id="1340445073" x="428293.07170268596" y="4921443.134299046" >
		</node>
		<node id="1340445076" x="428247.98198137176" y="4921584.982251249" >
		</node>
		<node id="1340445097" x="428228.0340247674" y="4921643.069036894" >
		</node>
		<node id="1344579108" x="426010.77910387574" y="4922352.611115395" >
		</node>
		<node id="134970602" x="428234.01317959954" y="4921575.426923367" >
		</node>
		<node id="134971067" x="428142.2500574428" y="4921894.568383215" >
		</node>
		<node id="1365640403" x="427305.25542952644" y="4922649.601882758" >
		</node>
		<node id="136615517" x="426490.7197936569" y="4923946.520133069" >
		</node>
		<node id="136617170" x="426616.1478406986" y="4924145.479560037" >
		</node>
		<node id="136620345" x="426483.39479172183" y="4923935.438220503" >
		</node>
		<node id="136629325" x="426232.73818076705" y="4923619.643043391" >
		</node>
		<node id="136631474" x="426382.6621746687" y="4923816.687457146" >
		</node>
		<node id="1390043748" x="429053.34431059525" y="4921214.047809757" >
		</node>
		<node id="1393093062" x="428235.76150138886" y="4921435.122901588" >
		</node>
		<node id="1393093123" x="427997.13376712013" y="4921328.033532997" >
		</node>
		<node id="1393115200" x="428449.03133312403" y="4921555.763645226" >
		</node>
		<node id="1393115206" x="428382.5548178373" y="4921590.488137636" >
		</node>
		<node id="1393115223" x="428436.7045333253" y="4921597.102469221" >
		</node>
		<node id="1393115230" x="428310.6195473818" y="4921684.473417441" >
		</node>
		<node id="1393299292" x="428119.1058438523" y="4921880.659869268" >
		</node>
		<node id="1393747891" x="427745.2841437053" y="4922003.109524061" >
		</node>
		<node id="1393747915" x="427979.8297387369" y="4921765.298750195" >
		</node>
		<node id="1393747923" x="427926.12725294806" y="4921816.261442728" >
		</node>
		<node id="1393747951" x="428162.30534998275" y="4921790.82197071" >
		</node>
		<node id="1397123504" x="426935.16395435017" y="4922507.994710452" >
		</node>
		<node id="1397123551" x="427092.00701806386" y="4922514.823280948" >
		</node>
		<node id="1397123578" x="427114.3929744823" y="4922549.832801503" >
		</node>
		<node id="1397123589" x="427286.6822782487" y="4922648.776211028" >
		</node>
		<node id="1397135743" x="426157.65133905096" y="4922500.638685027" >
		</node>
		<node id="1486032437" x="426966.02526734525" y="4922308.973404064" >
		</node>
		<node id="14868392" x="426128.67521166237" y="4923582.597114477" >
		</node>
		<node id="14868395" x="426144.50872724166" y="4923708.150656446" >
		</node>
		<node id="14868397" x="426060.28198538726" y="4923051.546063367" >
		</node>
		<node id="14868398" x="426000.11883385316" y="4923069.493507274" >
		</node>
		<node id="14868399" x="425919.6156067979" y="4923090.650276772" >
		</node>
		<node id="14877843" x="427328.4778588768" y="4923968.624874593" >
		</node>
		<node id="14995030" x="428786.5642872813" y="4922584.512457922" >
		</node>
		<node id="154302586" x="429202.9893889583" y="4921911.896471803" >
		</node>
		<node id="1569633649" x="426686.81765482435" y="4924203.616709657" >
		</node>
		<node id="1569684346" x="426686.067288482" y="4924150.445752729" >
		</node>
		<node id="166358479" x="427537.97183593863" y="4921128.443097123" >
		</node>
		<node id="166358485" x="427788.1879362161" y="4921153.802663588" >
		</node>
		<node id="166358487" x="427840.4933557064" y="4921157.344270826" >
		</node>
		<node id="166358492" x="428026.4875800316" y="4921231.027129683" >
		</node>
		<node id="166359029" x="427312.7591626597" y="4921152.149250029" >
		</node>
		<node id="1683947457" x="428830.82144187967" y="4923715.760867761" >
		</node>
		<node id="1690344952" x="426816.11591119564" y="4922469.872664304" >
		</node>
		<node id="1730953352" x="428494.152995521" y="4921856.966624926" >
		</node>
		<node id="1730953371" x="428500.30990961584" y="4921879.9168913895" >
		</node>
		<node id="1751212734" x="426406.214599956" y="4923582.773696474" >
		</node>
		<node id="1774430054" x="428207.6094991712" y="4922809.432133571" >
		</node>
		<node id="1808662183" x="427012.9902129255" y="4921106.400333744" >
		</node>
		<node id="1808662192" x="427013.1274040642" y="4921161.244245453" >
		</node>
		<node id="1855061915" x="428295.48606128886" y="4922494.610699528" >
		</node>
		<node id="1884266056" x="427966.64801398106" y="4922170.646903241" >
		</node>
		<node id="1909822621" x="427464.30781392497" y="4922188.845021216" >
		</node>
		<node id="1932879964" x="427954.1394344467" y="4922436.735962323" >
		</node>
		<node id="1932879966" x="427940.7409165264" y="4922554.040351215" >
		</node>
		<node id="1943096198" x="428325.71255451726" y="4923023.212634127" >
		</node>
		<node id="1947336543" x="427825.950034208" y="4923183.240964144" >
		</node>
		<node id="1972639741" x="426326.4904973219" y="4922630.735041368" >
		</node>
		<node id="2025438105" x="429161.2993779782" y="4921401.514134553" >
		</node>
		<node id="2025439311" x="429177.04120045673" y="4921373.692621025" >
		</node>
		<node id="2025441391" x="429193.2082996679" y="4921370.328509232" >
		</node>
		<node id="2097875606" x="427475.93989006215" y="4923357.567921762" >
		</node>
		<node id="2097875608" x="427549.94439784734" y="4923357.176786968" >
		</node>
		<node id="2097875609" x="427550.07487838995" y="4923344.599851977" >
		</node>
		<node id="2102464723" x="427674.8944603655" y="4924303.058640636" >
		</node>
		<node id="2102464724" x="427667.8765102731" y="4924311.501820103" >
		</node>
		<node id="2121854813" x="426297.4506368009" y="4924437.620298013" >
		</node>
		<node id="2121858182" x="426321.06891821243" y="4924367.387310948" >
		</node>
		<node id="2121858183" x="426349.49811290635" y="4924282.180374927" >
		</node>
		<node id="2121858184" x="426353.61210174457" y="4924269.636008759" >
		</node>
		<node id="2121858185" x="426380.8333322756" y="4924190.786239123" >
		</node>
		<node id="2121866974" x="426413.46413965954" y="4924273.624533524" >
		</node>
		<node id="2121889733" x="426463.8975034068" y="4923928.559830615" >
		</node>
		<node id="2121889840" x="426484.08043728746" y="4923951.760901766" >
		</node>
		<node id="2121889854" x="426475.6462198695" y="4923942.491211781" >
		</node>
		<node id="2121896577" x="426367.8457064433" y="4924272.6076633455" >
		</node>
		<node id="2121899806" x="426377.6810542923" y="4924241.9239776125" >
		</node>
		<node id="2121899810" x="426403.5568975367" y="4924269.8373012785" >
		</node>
		<node id="2126776948" x="426275.977305003" y="4925321.564017091" >
		</node>
		<node id="2126776954" x="426645.1043568757" y="4924252.644963432" >
		</node>
		<node id="2126947663" x="426621.888838785" y="4924200.249488306" >
		</node>
		<node id="2126948588" x="426734.0105521466" y="4924169.224405124" >
		</node>
		<node id="2128209092" x="429015.7932372079" y="4923676.469389106" >
		</node>
		<node id="2128209093" x="428856.6999685644" y="4923000.289389997" >
		</node>
		<node id="2128209094" x="429072.5020426373" y="4923917.294675645" >
		</node>
		<node id="2128209104" x="428948.5178411465" y="4923388.557697552" >
		</node>
		<node id="2128209107" x="428769.56416345283" y="4922623.435647963" >
		</node>
		<node id="2128209108" x="428896.6974028018" y="4923169.920354286" >
		</node>
		<node id="2128212791" x="428999.99798944296" y="4923547.143740483" >
		</node>
		<node id="2128212793" x="428961.8142321309" y="4923385.06870689" >
		</node>
		<node id="2128212795" x="429029.78093026404" y="4923669.3070007395" >
		</node>
		<node id="2128212797" x="428783.1979211989" y="4922623.008727543" >
		</node>
		<node id="2128212798" x="428872.4286234984" y="4923010.337767658" >
		</node>
		<node id="2128212804" x="429203.5307518926" y="4924487.638467439" >
		</node>
		<node id="2136034238" x="426395.35117870354" y="4923809.622901019" >
		</node>
		<node id="2136557803" x="428660.41048866254" y="4923741.978160478" >
		</node>
		<node id="2136557804" x="429085.8732333195" y="4923914.193913717" >
		</node>
		<node id="2136557810" x="428536.74055011146" y="4923761.6874961015" >
		</node>
		<node id="2136557812" x="429013.3632091226" y="4923665.209123262" >
		</node>
		<node id="2136557814" x="428600.8710627218" y="4923751.507396571" >
		</node>
		<node id="2136557816" x="428895.488871031" y="4923694.213273397" >
		</node>
		<node id="2136557818" x="428952.6406258731" y="4923680.1470129695" >
		</node>
		<node id="2136561500" x="428660.9873102086" y="4923535.5435459" >
		</node>
		<node id="2136561503" x="428647.65227519686" y="4923563.762319807" >
		</node>
		<node id="2136562379" x="428909.76739365014" y="4923166.789230481" >
		</node>
		<node id="2136564714" x="428872.7164681405" y="4922699.593010598" >
		</node>
		<node id="2136564715" x="428804.06389377435" y="4922717.073832593" >
		</node>
		<node id="21448894" x="426532.6257228571" y="4923273.266910092" >
		</node>
		<node id="2148864161" x="426088.4511856564" y="4924196.19011532" >
		</node>
		<node id="21493526" x="429097.03499099944" y="4921661.764106855" >
		</node>
		<node id="21493529" x="429142.3377184603" y="4921780.625917128" >
		</node>
		<node id="2159763167" x="426272.63615393394" y="4922596.2955930885" >
		</node>
		<node id="2159770467" x="426817.9216692211" y="4922880.977914415" >
		</node>
		<node id="2159770486" x="426793.30955696345" y="4922959.351727128" >
		</node>
		<node id="2159830226" x="426649.30305576837" y="4923349.947776541" >
		</node>
		<node id="2159856314" x="427756.5318962647" y="4921611.124151276" >
		</node>
		<node id="2159856318" x="427366.3179054801" y="4921930.729808032" >
		</node>
		<node id="2159869576" x="426765.1594649797" y="4921128.057207264" >
		</node>
		<node id="2160507695" x="428530.4403901517" y="4922433.0709505" >
		</node>
		<node id="21763335" x="428871.66425230436" y="4921831.3684792025" >
		</node>
		<node id="2188658429" x="428098.9101017106" y="4922786.3366151685" >
		</node>
		<node id="2188707555" x="426381.29489383125" y="4921186.287054528" >
		</node>
		<node id="2188707556" x="426340.292899822" y="4921276.556649066" >
		</node>
		<node id="2189440297" x="428466.6897400948" y="4922185.739958357" >
		</node>
		<node id="2189529794" x="429159.84811439575" y="4923159.029665154" >
		</node>
		<node id="2197445294" x="428391.6359135059" y="4922914.284821355" >
		</node>
		<node id="2197447463" x="428395.8324804911" y="4922865.414405575" >
		</node>
		<node id="2197742153" x="428471.8061919249" y="4923325.282093077" >
		</node>
		<node id="2197898694" x="428331.75987667916" y="4922202.332400935" >
		</node>
		<node id="2197898702" x="428199.67610890034" y="4922187.602102624" >
		</node>
		<node id="2199349587" x="427948.3694600446" y="4922485.535241681" >
		</node>
		<node id="2199687074" x="428251.7979458449" y="4921799.810986842" >
		</node>
		<node id="2201690573" x="429277.1919337611" y="4924421.782650101" >
		</node>
		<node id="2201690577" x="429262.4237131065" y="4924365.087180913" >
		</node>
		<node id="2204307811" x="427342.11063030234" y="4922032.770098892" >
		</node>
		<node id="2204307812" x="427377.38149720675" y="4921980.130588914" >
		</node>
		<node id="2204404339" x="428434.0471753309" y="4922531.656285439" >
		</node>
		<node id="2204404340" x="428294.56971259863" y="4922503.885733308" >
		</node>
		<node id="2204414723" x="429330.2163650822" y="4922096.2231161175" >
		</node>
		<node id="2204414724" x="429384.3324169852" y="4922103.900937488" >
		</node>
		<node id="2204414727" x="429459.2532065112" y="4922115.5751397945" >
		</node>
		<node id="2204414728" x="429456.54065483285" y="4922139.166699455" >
		</node>
		<node id="2204414731" x="429384.44070975995" y="4922141.75920478" >
		</node>
		<node id="2204459450" x="426573.64353937446" y="4924079.304351128" >
		</node>
		<node id="2204459451" x="426596.9890670863" y="4924010.597534143" >
		</node>
		<node id="2204806249" x="429314.7752980935" y="4922509.223314241" >
		</node>
		<node id="2208134593" x="426667.0950526286" y="4921155.467148071" >
		</node>
		<node id="2208134596" x="426611.54055171576" y="4921274.015931835" >
		</node>
		<node id="2208187109" x="429175.6095832017" y="4921843.451827912" >
		</node>
		<node id="2208187110" x="429283.5353081768" y="4921840.445609956" >
		</node>
		<node id="2208191168" x="429217.7999257358" y="4922468.8850346375" >
		</node>
		<node id="2208191170" x="429215.81505732174" y="4922435.635154355" >
		</node>
		<node id="2208191172" x="429191.5347267552" y="4922469.770600154" >
		</node>
		<node id="2208191174" x="429190.6124342514" y="4922433.998530331" >
		</node>
		<node id="2208279680" x="426722.4878031148" y="4921240.194590873" >
		</node>
		<node id="2208279683" x="426658.2805807586" y="4921228.608616043" >
		</node>
		<node id="2209962682" x="429291.4570676753" y="4921739.656582199" >
		</node>
		<node id="2258578393" x="426136.2077664562" y="4923956.656524826" >
		</node>
		<node id="2258578397" x="426244.694047539" y="4923926.864129663" >
		</node>
		<node id="2264327838" x="426738.51729926805" y="4921501.233104356" >
		</node>
		<node id="2264327844" x="426810.7386127533" y="4921493.944266327" >
		</node>
		<node id="2264353351" x="427874.56472306605" y="4922366.241569358" >
		</node>
		<node id="2264353352" x="427882.3848459196" y="4922333.738706712" >
		</node>
		<node id="2264514624" x="428038.20115461736" y="4922402.945486585" >
		</node>
		<node id="2264514625" x="427996.73308699665" y="4922399.87139919" >
		</node>
		<node id="2264626786" x="427212.66171934194" y="4921763.154896501" >
		</node>
		<node id="2264626787" x="427254.95077470015" y="4921780.179010363" >
		</node>
		<node id="2264636167" x="428859.8244969085" y="4922175.243908885" >
		</node>
		<node id="2264806513" x="426198.3236507256" y="4923410.17056231" >
		</node>
		<node id="2264806514" x="426221.3536731234" y="4923393.745605782" >
		</node>
		<node id="2264862804" x="427056.46981133404" y="4921664.743636018" >
		</node>
		<node id="2264862805" x="427080.98943961813" y="4921648.405250095" >
		</node>
		<node id="2264862806" x="427071.3473251973" y="4921687.072836729" >
		</node>
		<node id="2264883367" x="427434.8324419984" y="4921204.211135523" >
		</node>
		<node id="2264883369" x="427369.7994022382" y="4921214.812147496" >
		</node>
		<node id="2264912209" x="426716.1157125659" y="4921672.487336544" >
		</node>
		<node id="2264957769" x="427953.32292715646" y="4922784.214002704" >
		</node>
		<node id="2264957770" x="427888.7888642694" y="4922774.563965267" >
		</node>
		<node id="2266303406" x="428620.6780804059" y="4921627.6433994565" >
		</node>
		<node id="2266303407" x="428612.87338209944" y="4921714.9569355855" >
		</node>
		<node id="2267950495" x="429508.2703256309" y="4921945.621026238" >
		</node>
		<node id="2267950498" x="429464.5903480863" y="4921990.496767521" >
		</node>
		<node id="2269305756" x="426715.10134934325" y="4921871.529160824" >
		</node>
		<node id="2270504672" x="427158.4565531529" y="4922457.789567394" >
		</node>
		<node id="2272483283" x="428402.78700593865" y="4922968.1409742" >
		</node>
		<node id="2273623143" x="428658.84978177346" y="4921610.550390978" >
		</node>
		<node id="2273623150" x="428392.2571243398" y="4921893.746590825" >
		</node>
		<node id="2273623158" x="428716.76089087845" y="4921648.930915216" >
		</node>
		<node id="2294097529" x="429444.17509459023" y="4924443.309385752" >
		</node>
		<node id="2294097554" x="429088.42938009877" y="4922809.073606686" >
		</node>
		<node id="2294097584" x="429518.84643451346" y="4923163.218881968" >
		</node>
		<node id="2294097639" x="429291.43640737626" y="4924282.4871353125" >
		</node>
		<node id="2294097686" x="429082.64890826074" y="4922615.939743284" >
		</node>
		<node id="2308627728" x="427070.2390828844" y="4923775.994222321" >
		</node>
		<node id="2308627806" x="426669.71516808565" y="4923788.71686396" >
		</node>
		<node id="2308627809" x="426689.9685345737" y="4923751.828513712" >
		</node>
		<node id="2315654768" x="428744.25521491416" y="4921455.3665796295" >
		</node>
		<node id="2315654780" x="428756.9351572816" y="4921476.645981039" >
		</node>
		<node id="2336094542" x="429573.93863451906" y="4921449.027791333" >
		</node>
		<node id="2336094547" x="429606.4810115142" y="4921435.05627908" >
		</node>
		<node id="2344142324" x="428459.65766832174" y="4922615.292385549" >
		</node>
		<node id="2344163768" x="429110.5572336528" y="4922059.441141788" >
		</node>
		<node id="2344163776" x="429290.19051653444" y="4921424.452888047" >
		</node>
		<node id="2344163790" x="429120.1735089979" y="4922031.241769346" >
		</node>
		<node id="2344166588" x="429381.41867345816" y="4921763.397630404" >
		</node>
		<node id="2351348675" x="428095.52256103035" y="4921917.791196509" >
		</node>
		<node id="2351820412" x="428104.58535631356" y="4921137.859479177" >
		</node>
		<node id="2356985516" x="429325.17175749084" y="4921248.073526125" >
		</node>
		<node id="2360432596" x="428845.41043180926" y="4922585.5352207795" >
		</node>
		<node id="2360460509" x="427416.68017336377" y="4922508.450633345" >
		</node>
		<node id="2360460512" x="427652.3293154723" y="4922542.331435587" >
		</node>
		<node id="2360460513" x="427416.60090050986" y="4922492.065634587" >
		</node>
		<node id="2360460514" x="427606.1136485388" y="4922533.735873272" >
		</node>
		<node id="2362383216" x="426452.3041330921" y="4921947.135196202" >
		</node>
		<node id="2362383233" x="426486.1325545375" y="4921987.212441836" >
		</node>
		<node id="2362722659" x="426466.34819633485" y="4921997.700698843" >
		</node>
		<node id="2362722688" x="426453.62734559487" y="4921832.507667014" >
		</node>
		<node id="2362722738" x="426483.82996036275" y="4921838.2765390575" >
		</node>
		<node id="2362722739" x="426850.56018206914" y="4921486.598015386" >
		</node>
		<node id="2362722749" x="426575.5532082397" y="4922127.366566112" >
		</node>
		<node id="2362726785" x="426666.99000237125" y="4921719.209859597" >
		</node>
		<node id="2362726786" x="426648.15252441814" y="4921737.552103938" >
		</node>
		<node id="2368800939" x="426582.03175082116" y="4923574.799659962" >
		</node>
		<node id="2368800942" x="426507.77447560034" y="4923587.135915581" >
		</node>
		<node id="2368800947" x="426587.8622646524" y="4923576.100296115" >
		</node>
		<node id="2371138436" x="427786.4738283254" y="4921398.964787029" >
		</node>
		<node id="2371872958" x="426876.25089630624" y="4921193.963064734" >
		</node>
		<node id="2377051188" x="427321.072102005" y="4923162.409418342" >
		</node>
		<node id="2377051204" x="427431.1717955299" y="4923247.131691836" >
		</node>
		<node id="2378181319" x="428208.92029781383" y="4921901.620253535" >
		</node>
		<node id="2378440386" x="428821.1043779678" y="4921755.446676035" >
		</node>
		<node id="2378840911" x="426409.74503319594" y="4921922.52069356" >
		</node>
		<node id="2378840924" x="426430.14828833065" y="4921917.490952506" >
		</node>
		<node id="2378845352" x="426470.3363320599" y="4922121.099992098" >
		</node>
		<node id="2379084925" x="428182.43042113027" y="4921336.918388325" >
		</node>
		<node id="2380721932" x="428346.55563718226" y="4921870.720529137" >
		</node>
		<node id="2380756281" x="428823.6812373518" y="4922477.271011565" >
		</node>
		<node id="2380756727" x="428641.459860797" y="4922436.607546902" >
		</node>
		<node id="2380757191" x="428611.5935483145" y="4922479.182671447" >
		</node>
		<node id="2382416498" x="429156.4570943435" y="4921807.111625242" >
		</node>
		<node id="2382422410" x="427523.678923749" y="4924204.026526654" >
		</node>
		<node id="2382422411" x="427606.0164767356" y="4924272.052779375" >
		</node>
		<node id="2382428220" x="427511.00572709244" y="4923920.530252654" >
		</node>
		<node id="2382505398" x="426916.9949644102" y="4923698.028093504" >
		</node>
		<node id="2382505425" x="426803.15488263126" y="4923793.5020202845" >
		</node>
		<node id="2382505436" x="426874.3614496208" y="4923817.819028027" >
		</node>
		<node id="2382505464" x="426845.8824643365" y="4923903.6460736105" >
		</node>
		<node id="2382505546" x="426885.47115758935" y="4923986.619432961" >
		</node>
		<node id="2383718693" x="428999.665599838" y="4922654.692869876" >
		</node>